/*--------------------------------*- C++ -*----------------------------------*\
| =========                 |                                                 |
| \\      /  F ield         | foam-extend: Open Source CFD                    |
|  \\    /   O peration     | Version:     4.1                                |
|   \\  /    A nd           | Web:         http://www.foam-extend.org         |
|    \\/     M anipulation  |                                                 |
\*---------------------------------------------------------------------------*/
FoamFile
{
    version     2.0;
    format      ascii;
    class       dictionary;
    object      fvSchemes;
}
// * * * * * * * * * * * * * * * * * * * * * * * * * * * * * * * * * * * * * //

ddtSchemes
{
    default steadyState;
}

gradSchemes
{
    default         cellLimited Gauss linear 0.5; //cellLimited Gauss linear 1.0;
    // default         cellLimited Gauss linear 1.0;
    // grad(U)         cellMDLimited Gauss linear 1;
}

divSchemes
{
    default         none;
    div(phi,U)      bounded Gauss linearUpwind grad(U); //Gauss upwind; //Gauss linearUpwindV grad(U);
    div(phi,k)      bounded Gauss upwind;
    div(phi,omega)  bounded Gauss upwind;
    // div(phi,T)      Gauss limitedLinear 1;
    div((nuEff*dev2(T(grad(U))))) Gauss linear;
    div((grad(p)|A(U))) Gauss linear;
    // div(U)          Gauss linear;
}

laplacianSchemes
{
    default         Gauss linear limited 0.333; // Gauss linear corrected;
}

interpolationSchemes
{
    default         linear;
}

snGradSchemes
{
    default         limited 0.333; // corrected;
}

wallDist
{
    method meshWave;
}


// ************************************************************************* //
